data/pm_data/pti/two_winding_mag_test.raw
 0,    100.00, 33, 0, 0, 60.00
A Frankenstein network for testing two-winding transformers with magnetizing admittance
developed by Carleton Coffrin (cjc@lanl.gov) and David Fobes (dfobes@lanl.gov) April 2018
    1,'FAV SPOT 01', 230.0000,2,   1,   1,   1,1.00000000,  -0.559720, 1.10000, 0.90000, 1.10000, 0.90000
    2,'FAV SPOT 02', 230.0000,3,   1,   1,   1,1.06413996,   0.000000, 1.10000, 0.90000, 1.10000, 0.90000
0 / END OF BUS DATA, BEGIN LOAD DATA
    1,'1 ',1,   1,   1,   300.000,    98.610,     0.000,     0.000,     0.000,     0.000,   1,1
    2,'1 ',1,   1,   1,   400.000,   131.470,     0.000,     0.000,     0.000,     0.000,   1,1
0 / END OF LOAD DATA, BEGIN FIXED SHUNT DATA
0 / END OF FIXED SHUNT DATA, BEGIN GENERATOR DATA
    1,'1 ',   324.498,   390.000,   390.000,  -390.000,1.10000,    0,   100.000,   0.00000,   1.00000,   0.00000,   0.00000,1.00000,1,  100.0,   520.000,     0.000,   1,1.0000,   0,1.0000,   0,1.0000,   0,1.0000,0, 1.0000
    2,'1 ',     0.000,   -10.802,   150.000,  -150.000,1.06414,    0,   100.000,   0.00000,   1.00000,   0.00000,   0.00000,1.00000,1,  100.0,   200.000,     0.000,   1,1.0000,   0,1.0000,   0,1.0000,   0,1.0000,0, 1.0000
0 / END OF GENERATOR DATA, BEGIN BRANCH DATA
0 / END OF BRANCH DATA, BEGIN TRANSFORMER DATA
     2,     1,    0,'1 ',1,1,1,5.0000E-3,6.74000E-3,2,'            ',1,   1,1.0000,   0,1.0000,   0,1.0000,   0,1.0000,'            '
2.97000E-3,2.97000E-2, 100.00
1.050000,230.000,  -1.000, 426.00, 426.00, 426.00,-3,     0,   30.00,  -30.00,  150.00,   51.00,9601, 0, 0.00000, 0.00000,  0.000
1.000000,230.000
0 / END OF TRANSFORMER DATA, BEGIN AREA DATA
0 / END OF AREA DATA, BEGIN TWO-TERMINAL DC DATA
0 / END OF TWO-TERMINAL DC DATA, BEGIN VOLTAGE SOURCE CONVERTER DATA
0 / END OF VOLTAGE SOURCE CONVERTER DATA, BEGIN IMPEDANCE CORRECTION DATA
0 / END OF IMPEDANCE CORRECTION DATA, BEGIN MULTI-TERMINAL DC DATA
0 / END OF MULTI-TERMINAL DC DATA, BEGIN MULTI-SECTION LINE DATA
0 / END OF MULTI-SECTION LINE DATA, BEGIN ZONE DATA
0 / END OF ZONE DATA, BEGIN INTER-AREA TRANSFER DATA
0 / END OF INTER-AREA TRANSFER DATA, BEGIN OWNER DATA
0 / END OF OWNER DATA, BEGIN FACTS CONTROL DEVICE DATA
0 / END OF FACTS CONTROL DEVICE DATA, BEGIN SWITCHED SHUNT DATA
0 /END OF SWITCHED SHUNT DATA, BEGIN GNE DEVICE DATA
0 /END OF GNE DEVICE DATA
Q
